FoamFile
{
    version     2.0;
    format      ascii;
    class       dictionary;
    object      blockMeshDict;
}

convertToMeters 1;

vertices
(
    (0.0779881616162 -0.0154074328937 0)   //0
    (0.0120520953118 0.00742956869667 0)   //1
    (0.000681483192283 0.00517637984985 0)   //2
    (0.00940212855281 -0.00246024404082 0)   //3
    (0.0829059800312 -0.0047863930913 0)   //4
    (0.0147569309707 0.0188929921536 0)   //5
    (-0.0106240180399 0.00820567911507 0)   //6
    (0.0060128744468 -0.0137402781675 0)   //7
    (0.0768713762773 -0.0273078458109 0)   //8
    (0.145448849598 0.12967549508 0)   //9
    (-0.0534632862731 0.156810366829 0)   //10
    (-0.153866651269 0.0465874186487 0)   //11
    (-0.122026244781 -0.0990701335852 0)   //12
    (0.0638041621533 -0.175026693015 0)   //13
    (0.44 0.12967549508 0)   //14
    (0.44 0.4 0)   //15
    (0.145448849598 0.4 0)   //16
    (-0.0534632862731 0.4 0)   //17
    (-0.36 0.4 0)   //18
    (-0.36 0.156810366829 0)   //19
    (-0.36 0.0465874186487 0)   //20
    (-0.36 -0.0990701335852 0)   //21
    (-0.36 -0.4 0)   //22
    (-0.122026244781 -0.4 0)   //23
    (0.0638041621533 -0.4 0)   //24
    (0.44 -0.4 0)   //25
    (0.44 -0.175026693015 0)   //26
    (0.44 -0.0273078458109 0)   //27
    (0.44 -0.0154074328937 0)   //28
    (0.44 -0.0047863930913 0)   //29
    (0.0779881616162 -0.0154074328937 0.14)   //30
    (0.0120520953118 0.00742956869667 0.14)   //31
    (0.000681483192283 0.00517637984985 0.14)   //32
    (0.00940212855281 -0.00246024404082 0.14)   //33
    (0.0829059800312 -0.0047863930913 0.14)   //34
    (0.0147569309707 0.0188929921536 0.14)   //35
    (-0.0106240180399 0.00820567911507 0.14)   //36
    (0.0060128744468 -0.0137402781675 0.14)   //37
    (0.0768713762773 -0.0273078458109 0.14)   //38
    (0.145448849598 0.12967549508 0.14)   //39
    (-0.0534632862731 0.156810366829 0.14)   //40
    (-0.153866651269 0.0465874186487 0.14)   //41
    (-0.122026244781 -0.0990701335852 0.14)   //42
    (0.0638041621533 -0.175026693015 0.14)   //43
    (0.44 0.12967549508 0.14)   //44
    (0.44 0.4 0.14)   //45
    (0.145448849598 0.4 0.14)   //46
    (-0.0534632862731 0.4 0.14)   //47
    (-0.36 0.4 0.14)   //48
    (-0.36 0.156810366829 0.14)   //49
    (-0.36 0.0465874186487 0.14)   //50
    (-0.36 -0.0990701335852 0.14)   //51
    (-0.36 -0.4 0.14)   //52
    (-0.122026244781 -0.4 0.14)   //53
    (0.0638041621533 -0.4 0.14)   //54
    (0.44 -0.4 0.14)   //55
    (0.44 -0.175026693015 0.14)   //56
    (0.44 -0.0273078458109 0.14)   //57
    (0.44 -0.0154074328937 0.14)   //58
    (0.44 -0.0047863930913 0.14)   //59
);

blocks
(
    hex (1 0 4 5 31 30 34 35) (23 6 1) simpleGrading (1 2.48832 1)
    hex (2 1 5 6 32 31 35 36) (10 6 1) simpleGrading (1 2.48832 1)
    hex (3 2 6 7 33 32 36 37) (9 6 1) simpleGrading (1 2.48832 1)
    hex (0 3 7 8 30 33 37 38) (23 6 1) simpleGrading (1 2.48832 1)
    hex (5 4 9 10 35 34 39 40) (23 53 1) simpleGrading (1 1 1)
    hex (6 5 10 11 36 35 40 41) (10 53 1) simpleGrading (1 1 1)
    hex (7 6 11 12 37 36 41 42) (9 53 1) simpleGrading (1 1 1)
    hex (8 7 12 13 38 37 42 43) (23 53 1) simpleGrading (1 1 1)
    hex (10 9 16 17 40 39 46 47) (23 50 1) simpleGrading (1 2 1)
    hex (19 10 17 18 49 40 47 48) (50 50 1) simpleGrading (0.5 2 1)
    hex (11 10 19 20 41 40 49 50) (10 50 1) simpleGrading (1 2 1)
    hex (12 11 20 21 42 41 50 51) (9 50 1) simpleGrading (1 2 1)
    hex (12 21 22 23 42 51 52 53) (50 50 1) simpleGrading (2 0.5 1)
    hex (13 12 23 24 43 42 53 54) (23 50 1) simpleGrading (1 0.5 1)
    hex (26 13 24 25 56 43 54 55) (18 50 1) simpleGrading (0.0450732441103 0.5 1)
    hex (13 26 27 8 43 56 57 38) (18 53 1) simpleGrading (22.1861110674 1 1)
    hex (8 27 28 0 38 57 58 30) (18 6 1) simpleGrading (22.1861110674 0.401877572016 1)
    hex (0 28 29 4 30 58 59 34) (18 6 1) simpleGrading (22.1861110674 2.48832 1)
    hex (4 29 14 9 34 59 44 39) (18 53 1) simpleGrading (22.1861110674 1 1)
    hex (9 14 15 16 39 44 45 46) (18 50 1) simpleGrading (22.1861110674 2 1)
);

edges
(
       spline 1 0
       (
             (0.0128555398839 0.00733710204163 0)
(0.0136560222599 0.00723358031786 0)
(0.0144537805326 0.00711989210014 0)
(0.0152490189581 0.00699679968235 0)
(0.0160419147586 0.00686496446701 0)
(0.0168326232441 0.00672496607952 0)
(0.0176212817346 0.00657731700457 0)
(0.0184080126081 0.00642247396388 0)
(0.0191929257033 0.00626084688041 0)
(0.0199761202343 0.00609280602667 0)
(0.0207576863352 0.00591868778766 0)
(0.0215377063171 0.00573879935289 0)
(0.0223162557012 0.00555342257126 0)
(0.0230934040744 0.00536281714436 0)
(0.0238692158033 0.00516722329194 0)
(0.0246437506347 0.00496686399233 0)
(0.0254170642036 0.00476194687796 0)
(0.0261892084652 0.00455266584855 0)
(0.0269602320652 0.00433920245197 0)
(0.0277301806577 0.00412172707216 0)
(0.0284990971809 0.00390039995629 0)
(0.0292670220957 0.00367537210669 0)
(0.0300339935945 0.00344678605914 0)
(0.0308000477834 0.00321477656417 0)
(0.0315652188434 0.00297947118624 0)
(0.0323295391714 0.00274099083234 0)
(0.0330930395056 0.00249945021987 0)
(0.0338557490376 0.0022549582923 0)
(0.0346176955106 0.00200761858938 0)
(0.0353789053088 0.00175752957798 0)
(0.0361394035365 0.00150478494846 0)
(0.0368992140892 0.00124947388082 0)
(0.0376583597185 0.000991681284497 0)
(0.0384168620894 0.000731488014766 0)
(0.0391747418332 0.000468971068474 0)
(0.0399320185949 0.000204203761594 0)
(0.0406887110762 -6.27441094636e-05 0)
(0.0414448370755 -0.000331806121062 0)
(0.0422004135229 -0.000602919088337 0)
(0.0429554565138 -0.000876022942826 0)
(0.0437099813385 -0.00115106062037 0)
(0.0444640025098 -0.00142797795839 0)
(0.0452175337884 -0.00170672360147 0)
(0.0459705882059 -0.00198724891451 0)
(0.0467231780867 -0.00226950790273 0)
(0.0474753150673 -0.00255345713786 0)
(0.0482270101148 -0.00283905568986 0)
(0.048978273544 -0.00312626506385 0)
(0.0497291150327 -0.00341504914162 0)
(0.0504795436364 -0.00370537412736 0)
(0.0512295678019 -0.00399720849722 0)
(0.0519791953799 -0.00429052295253 0)
(0.0527284336362 -0.00458529037612 0)
(0.0534772892634 -0.00488148579163 0)
(0.0542257683902 -0.0051790863256 0)
(0.0549738765918 -0.00547807117203 0)
(0.0557216188979 -0.00577842155919 0)
(0.0564689998016 -0.00608012071866 0)
(0.057216023267 -0.00638315385622 0)
(0.0579626927366 -0.00668750812464 0)
(0.0587090111379 -0.00699317259809 0)
(0.05945498089 -0.00730013824812 0)
(0.0602006039098 -0.00760839792105 0)
(0.0609458816175 -0.00791794631677 0)
(0.0616908149418 -0.00822877996864 0)
(0.0624354043256 -0.00854089722474 0)
(0.0631796497299 -0.00885429822995 0)
(0.0639235506389 -0.00916898490926 0)
(0.0646671060642 -0.00948496095181 0)
(0.0647042747423 -0.00950079368986 0)
(0.064741442553 -0.00951662966535 0)
(0.064778609496 -0.00953246887908 0)
(0.0648157755711 -0.00954831133187 0)
(0.0648529407781 -0.00956415702454 0)
(0.0648901051167 -0.00958000595794 0)
(0.0649272685868 -0.0095958581329 0)
(0.064964431188 -0.0096117135503 0)
(0.0650015929203 -0.009627572211 0)
(0.0650387537832 -0.00964343411587 0)
(0.0650759137766 -0.00965929926582 0)
(0.0651130729003 -0.00967516766173 0)
(0.0651502311539 -0.00969103930455 0)
(0.0651873885374 -0.00970691419516 0)
(0.0652245450503 -0.00972279233453 0)
(0.0652617006925 -0.00973867372358 0)
(0.0652988554636 -0.00975455836328 0)
(0.0653360093635 -0.0097704462546 0)
(0.0653731623919 -0.00978633739852 0)
(0.0654103145484 -0.009802231796 0)
(0.0654474658329 -0.00981812944807 0)
(0.0654846162451 -0.00983403035573 0)
(0.0655217657847 -0.00984993452 0)
(0.0655589144514 -0.00986584194191 0)
(0.0655960622449 -0.00988175262251 0)
(0.065633209165 -0.00989766656284 0)
(0.0656703552113 -0.00991358376397 0)
(0.0657075003837 -0.00992950422699 0)
(0.0657446446817 -0.00994542795296 0)
(0.0657817881051 -0.00996135494299 0)
(0.0658189306536 -0.00997728519818 0)
(0.065856072327 -0.00999321871966 0)
(0.0658932131248 -0.0100091555085 0)
(0.0659303530468 -0.010025095566 0)
(0.0659674920927 -0.0100410388931 0)
(0.0660046302622 -0.0100569854911 0)
(0.066041767555 -0.0100729353611 0)
(0.0660789039707 -0.0100888885043 0)
(0.066116039509 -0.010104844922 0)
(0.0661531741696 -0.0101208046152 0)
(0.0661903079522 -0.0101367675853 0)
(0.0662274408565 -0.0101527338334 0)
(0.0662645728821 -0.0101687033608 0)
(0.0663017040286 -0.0101846761687 0)
(0.0663388342959 -0.0102006522583 0)
(0.0663759636834 -0.0102166316311 0)
(0.0664130921909 -0.0102326142882 0)
(0.066450219818 -0.0102486002308 0)
(0.0664873465644 -0.0102645894604 0)
(0.0665244724297 -0.0102805819782 0)
(0.0665615974136 -0.0102965777856 0)
(0.0665987215157 -0.0103125768838 0)
(0.0666358447356 -0.0103285792743 0)
(0.0666729670731 -0.0103445849583 0)
(0.0667100885276 -0.0103605939372 0)
(0.0667472090989 -0.0103766062125 0)
(0.0667843287867 -0.0103926217854 0)
(0.0668214475904 -0.0104086406575 0)
(0.0668585655097 -0.01042466283 0)
(0.0668956825443 -0.0104406883044 0)
(0.0669327986938 -0.0104567170822 0)
(0.0669699139578 -0.0104727491647 0)
(0.0670070283359 -0.0104887845535 0)
(0.0670441418277 -0.0105048232499 0)
(0.0670812544328 -0.0105208652554 0)
(0.0671183661509 -0.0105369105716 0)
(0.0671554769814 -0.0105529591999 0)
(0.0671925869241 -0.0105690111418 0)
(0.0672296959785 -0.0105850663989 0)
(0.0672668041442 -0.0106011249726 0)
(0.0673039114208 -0.0106171868644 0)
(0.0673410178078 -0.010633252076 0)
(0.067378123305 -0.0106493206089 0)
(0.0674152279118 -0.0106653924646 0)
(0.0674523316278 -0.0106814676447 0)
(0.0674894344526 -0.0106975461509 0)
(0.0675265363858 -0.0107136279846 0)
(0.0675636374269 -0.0107297131475 0)
(0.0676007375756 -0.0107458016413 0)
(0.0676378368313 -0.0107618934675 0)
(0.0676749351936 -0.0107779886278 0)
(0.0677120326622 -0.0107940871238 0)
(0.0677491292365 -0.0108101889572 0)
(0.0677862249161 -0.0108262941297 0)
(0.0678233197005 -0.0108424026429 0)
(0.0678604135894 -0.0108585144986 0)
(0.0678975065821 -0.0108746296984 0)
(0.0679345986784 -0.010890748244 0)
(0.0679716898777 -0.0109068701372 0)
(0.0680087801795 -0.0109229953797 0)
(0.0680458695835 -0.0109391239733 0)
(0.068082958089 -0.0109552559196 0)
(0.0681200456957 -0.0109713912205 0)
(0.0681571324031 -0.0109875298778 0)
(0.0681942182107 -0.0110036718931 0)
(0.068231303118 -0.0110198172684 0)
(0.0682683871245 -0.0110359660054 0)
(0.0683054702297 -0.011052118106 0)
(0.0683425524332 -0.0110682735719 0)
(0.0683796337345 -0.0110844324051 0)
(0.068416714133 -0.0111005946072 0)
(0.0684537936283 -0.0111167601803 0)
(0.0684908722199 -0.0111329291262 0)
(0.0685279499072 -0.0111491014467 0)
(0.0685650266898 -0.0111652771438 0)
(0.0686021025672 -0.0111814562194 0)
(0.0686391775387 -0.0111976386753 0)
(0.068676251604 -0.0112138245134 0)
(0.0687133247625 -0.0112300137358 0)
(0.0687503970137 -0.0112462063444 0)
(0.068787468357 -0.011262402341 0)
(0.068824538792 -0.0112786017278 0)
(0.068861608318 -0.0112948045065 0)
(0.0688986769347 -0.0113110106794 0)
(0.0689357446414 -0.0113272202482 0)
(0.0689728114376 -0.011343433215 0)
(0.0690098773227 -0.0113596495819 0)
(0.0690469422963 -0.0113758693509 0)
(0.0690840063577 -0.011392092524 0)
(0.0691210695065 -0.0114083191032 0)
(0.069158131742 -0.0114245490906 0)
(0.0691951930638 -0.0114407824883 0)
(0.0692322534712 -0.0114570192984 0)
(0.0692693129637 -0.0114732595228 0)
(0.0693063715408 -0.0114895031639 0)
(0.0693434292018 -0.0115057502235 0)
(0.0693804859463 -0.011522000704 0)
(0.0694175417735 -0.0115382546073 0)
(0.0694545966831 -0.0115545119357 0)
(0.0694916506743 -0.0115707726912 0)
(0.0695287037467 -0.0115870368761 0)
(0.0695657558996 -0.0116033044926 0)
(0.0696028071324 -0.0116195755427 0)
(0.0696398574446 -0.0116358500287 0)
(0.0696769068355 -0.0116521279528 0)
(0.0697139553046 -0.0116684093172 0)
(0.0697510028513 -0.0116846941241 0)
(0.069788049475 -0.0117009823758 0)
(0.0698250951751 -0.0117172740745 0)
(0.0698621399509 -0.0117335692224 0)
(0.0698991838019 -0.0117498678219 0)
(0.0699362267275 -0.0117661698751 0)
(0.069973268727 -0.0117824753845 0)
(0.0700103097998 -0.0117987843522 0)
(0.0700473499454 -0.0118150967806 0)
(0.070084389163 -0.011831412672 0)
(0.0701214274521 -0.0118477320287 0)
(0.0701584648121 -0.0118640548531 0)
(0.0701955012422 -0.0118803811474 0)
(0.070232536742 -0.0118967109142 0)
(0.0702695713107 -0.0119130441557 0)
(0.0703066049477 -0.0119293808742 0)
(0.0703436376524 -0.0119457210723 0)
(0.0703806694241 -0.0119620647523 0)
(0.0704177002622 -0.0119784119166 0)
(0.070454730166 -0.0119947625676 0)
(0.070491759135 -0.0120111167077 0)
(0.0705287871683 -0.0120274743395 0)
(0.0705658142654 -0.0120438354652 0)
(0.0706028404257 -0.0120602000875 0)
(0.0706398656484 -0.0120765682088 0)
(0.0706768899329 -0.0120929398315 0)
(0.0707139132785 -0.0121093149581 0)
(0.0707509356845 -0.0121256935912 0)
(0.0707879571504 -0.0121420757333 0)
(0.0708249776753 -0.0121584613868 0)
(0.0708619972587 -0.0121748505543 0)
(0.0708990158998 -0.0121912432384 0)
(0.0709360335979 -0.0122076394416 0)
(0.0709730503525 -0.0122240391664 0)
(0.0710100661627 -0.0122404424155 0)
(0.0710470810279 -0.0122568491914 0)
(0.0710840949474 -0.0122732594968 0)
(0.0711211079205 -0.0122896733341 0)
(0.0711581199465 -0.0123060907061 0)
(0.0711951310247 -0.0123225116154 0)
(0.0712321411544 -0.0123389360645 0)
(0.0712691503349 -0.0123553640562 0)
(0.0713061585654 -0.012371795593 0)
(0.0713431658453 -0.0123882306778 0)
(0.0713801721738 -0.012404669313 0)
(0.0714171775503 -0.0124211115015 0)
(0.0714541819739 -0.0124375572459 0)
(0.0714911854441 -0.0124540065489 0)
(0.0715281879599 -0.0124704594133 0)
(0.0715651895208 -0.0124869158417 0)
(0.0716021901259 -0.0125033758369 0)
(0.0716391897746 -0.0125198394017 0)
(0.0716761884661 -0.0125363065388 0)
(0.0717131861997 -0.0125527772509 0)
(0.0717501829745 -0.0125692515409 0)
(0.07178717879 -0.0125857294115 0)
(0.0718241736452 -0.0126022108656 0)
(0.0718611675396 -0.0126186959059 0)
(0.0718981604722 -0.0126351845353 0)
(0.0719351524424 -0.0126516767566 0)
(0.0719721434494 -0.0126681725726 0)
(0.0720091334925 -0.0126846719862 0)
(0.0720461225708 -0.0127011750002 0)
(0.0720831106836 -0.0127176816175 0)
(0.0721200978301 -0.012734191841 0)
(0.0721570840095 -0.0127507056736 0)
(0.0721940692212 -0.0127672231182 0)
(0.0722310534642 -0.0127837441776 0)
(0.0722680367379 -0.0128002688549 0)
(0.0723050190414 -0.0128167971529 0)
(0.0723420003739 -0.0128333290745 0)
(0.0723789807346 -0.0128498646228 0)
(0.0724159601229 -0.0128664038007 0)
(0.0724529385377 -0.0128829466112 0)
(0.0724899159785 -0.0128994930572 0)
(0.0725268924443 -0.0129160431417 0)
(0.0725638679343 -0.0129325968677 0)
(0.0726008424478 -0.0129491542383 0)
(0.0726378159839 -0.0129657152565 0)
(0.0726747885419 -0.0129822799253 0)
(0.0727117601209 -0.0129988482477 0)
(0.07274873072 -0.0130154202268 0)
(0.0727857003386 -0.0130319958656 0)
(0.0728226689757 -0.0130485751673 0)
(0.0728596366305 -0.0130651581349 0)
(0.0728966033022 -0.0130817447715 0)
(0.0729335689899 -0.0130983350802 0)
(0.0729705336929 -0.0131149290641 0)
(0.0730074974103 -0.0131315267264 0)
(0.0730444601412 -0.0131481280701 0)
(0.0730814218849 -0.0131647330984 0)
(0.0731183826404 -0.0131813418146 0)
(0.0731553424069 -0.0131979542216 0)
(0.0731923011836 -0.0132145703228 0)
(0.0732292589696 -0.0132311901212 0)
(0.0732662157641 -0.0132478136202 0)
(0.0733031715662 -0.0132644408228 0)
(0.073340126375 -0.0132810717323 0)
(0.0733770801896 -0.013297706352 0)
(0.0734140330093 -0.013314344685 0)
(0.0734509848332 -0.0133309867346 0)
(0.0734879356603 -0.0133476325041 0)
(0.0735248854897 -0.0133642819967 0)
(0.0735618343207 -0.0133809352157 0)
(0.0735987821524 -0.0133975921644 0)
(0.0736357289838 -0.013414252846 0)
(0.073672674814 -0.0134309172639 0)
(0.0737096196423 -0.0134475854215 0)
(0.0737465634676 -0.0134642573219 0)
(0.0737835062891 -0.0134809329686 0)
(0.0738204481059 -0.013497612365 0)
(0.0738573889171 -0.0135142955142 0)
(0.0738943287218 -0.0135309824198 0)
(0.0739312675191 -0.0135476730851 0)
(0.0739682053081 -0.0135643675135 0)
(0.0740051420879 -0.0135810657083 0)
(0.0740420778575 -0.013597767673 0)
(0.0740790126161 -0.013614473411 0)
(0.0741159463627 -0.0136311829258 0)
(0.0741528790964 -0.0136478962207 0)
(0.0741898108163 -0.0136646132992 0)
(0.0742267415215 -0.0136813341647 0)
(0.074263671211 -0.0136980588208 0)
(0.0743005998839 -0.0137147872709 0)
(0.0743375275393 -0.0137315195185 0)
(0.0743744541761 -0.013748255567 0)
(0.0744113797936 -0.01376499542 0)
(0.0744483043908 -0.0137817390811 0)
(0.0744852279666 -0.0137984865536 0)
(0.0745221505202 -0.0138152378412 0)
(0.0745590720506 -0.0138319929475 0)
(0.0745959925569 -0.0138487518759 0)
(0.074632912038 -0.01386551463 0)
(0.0746698304931 -0.0138822812134 0)
(0.0747067479212 -0.0138990516298 0)
(0.0747436643213 -0.0139158258826 0)
(0.0747805796925 -0.0139326039755 0)
(0.0748174940337 -0.0139493859121 0)
(0.074854407344 -0.013966171696 0)
(0.0748913196225 -0.013982961331 0)
(0.0749282308681 -0.0139997548205 0)
(0.0749651410799 -0.0140165521683 0)
(0.075002050257 -0.0140333533781 0)
(0.0750389583982 -0.0140501584534 0)
(0.0750758655026 -0.0140669673981 0)
(0.0751127715693 -0.0140837802157 0)
(0.0751496765972 -0.0141005969101 0)
(0.0751865805854 -0.0141174174849 0)
(0.0752234835328 -0.0141342419438 0)
(0.0752603854385 -0.0141510702906 0)
(0.0752972863014 -0.014167902529 0)
(0.0753341861205 -0.0141847386628 0)
(0.0753710848949 -0.0142015786958 0)
(0.0754079826235 -0.0142184226316 0)
(0.0754448793052 -0.0142352704742 0)
(0.0754817749392 -0.0142521222273 0)
(0.0755186695243 -0.0142689778946 0)
(0.0755555630596 -0.0142858374801 0)
(0.075592455544 -0.0143027009876 0)
(0.0756293469765 -0.0143195684208 0)
(0.075666237356 -0.0143364397837 0)
(0.0757031266816 -0.01435331508 0)
(0.0757400149522 -0.0143701943137 0)
(0.0757769021667 -0.0143870774886 0)
(0.0758137883241 -0.0144039646087 0)
(0.0758506734234 -0.0144208556777 0)
(0.0758875574635 -0.0144377506997 0)
(0.0759244404434 -0.0144546496784 0)
(0.075961322362 -0.0144715526179 0)
(0.0759982032183 -0.0144884595221 0)
(0.0760350830112 -0.014505370395 0)
(0.0760719617396 -0.0145222852404 0)
(0.0761088394025 -0.0145392040623 0)
(0.0761457159989 -0.0145561268648 0)
(0.0761825915275 -0.0145730536518 0)
(0.0762194659875 -0.0145899844273 0)
(0.0762563393777 -0.0146069191953 0)
(0.076293211697 -0.0146238579598 0)
(0.0763300829444 -0.0146408007249 0)
(0.0763669531188 -0.0146577474945 0)
(0.0764038222191 -0.0146746982728 0)
(0.0764406902441 -0.0146916530637 0)
(0.0764775571929 -0.0147086118714 0)
(0.0765144230643 -0.0147255746999 0)
(0.0765512878572 -0.0147425415532 0)
(0.0765881515706 -0.0147595124356 0)
(0.0766250142033 -0.0147764873511 0)
(0.0766618757543 -0.0147934663038 0)
(0.0766987362223 -0.0148104492978 0)
(0.0767355956064 -0.0148274363372 0)
(0.0767724539054 -0.0148444274263 0)
(0.0768093111183 -0.0148614225692 0)
(0.0768461672437 -0.0148784217699 0)
(0.0768830222808 -0.0148954250328 0)
(0.0769198762283 -0.0149124323619 0)
(0.0769567290851 -0.0149294437615 0)
(0.0769935808501 -0.0149464592358 0)
(0.0770304315222 -0.014963478789 0)
(0.0770672811002 -0.0149805024252 0)
(0.077104129583 -0.0149975301488 0)
(0.0771409769695 -0.015014561964 0)
(0.0771778232585 -0.0150315978751 0)
(0.0772146684489 -0.0150486378862 0)
(0.0772515125395 -0.0150656820017 0)
(0.0772883555293 -0.0150827302258 0)
(0.0773251974169 -0.0150997825629 0)
(0.0773620382014 -0.0151168390172 0)
(0.0773988778815 -0.015133899593 0)
(0.077435716456 -0.0151509642948 0)
(0.0774725539239 -0.0151680331267 0)
(0.0775093902839 -0.0151851060932 0)
(0.0775462255349 -0.0152021831985 0)
(0.0775830596758 -0.0152192644472 0)
(0.0776198927053 -0.0152363498434 0)
(0.0776567246222 -0.0152534393917 0)
(0.0776935554255 -0.0152705330963 0)
(0.0777303851138 -0.0152876309618 0)
(0.0777672136861 -0.0153047329924 0)
(0.0778040411412 -0.0153218391927 0)
(0.0778408674778 -0.015338949567 0)
(0.0778776926949 -0.0153560641198 0)
(0.077914516791 -0.0153731828555 0)
(0.0779513397652 -0.0153903057787 0)
(0.0779881616162 -0.0154074328937 0)
)

       spline 31 30
       (
             (0.0128555398839 0.00733710204163 0.14)
(0.0136560222599 0.00723358031786 0.14)
(0.0144537805326 0.00711989210014 0.14)
(0.0152490189581 0.00699679968235 0.14)
(0.0160419147586 0.00686496446701 0.14)
(0.0168326232441 0.00672496607952 0.14)
(0.0176212817346 0.00657731700457 0.14)
(0.0184080126081 0.00642247396388 0.14)
(0.0191929257033 0.00626084688041 0.14)
(0.0199761202343 0.00609280602667 0.14)
(0.0207576863352 0.00591868778766 0.14)
(0.0215377063171 0.00573879935289 0.14)
(0.0223162557012 0.00555342257126 0.14)
(0.0230934040744 0.00536281714436 0.14)
(0.0238692158033 0.00516722329194 0.14)
(0.0246437506347 0.00496686399233 0.14)
(0.0254170642036 0.00476194687796 0.14)
(0.0261892084652 0.00455266584855 0.14)
(0.0269602320652 0.00433920245197 0.14)
(0.0277301806577 0.00412172707216 0.14)
(0.0284990971809 0.00390039995629 0.14)
(0.0292670220957 0.00367537210669 0.14)
(0.0300339935945 0.00344678605914 0.14)
(0.0308000477834 0.00321477656417 0.14)
(0.0315652188434 0.00297947118624 0.14)
(0.0323295391714 0.00274099083234 0.14)
(0.0330930395056 0.00249945021987 0.14)
(0.0338557490376 0.0022549582923 0.14)
(0.0346176955106 0.00200761858938 0.14)
(0.0353789053088 0.00175752957798 0.14)
(0.0361394035365 0.00150478494846 0.14)
(0.0368992140892 0.00124947388082 0.14)
(0.0376583597185 0.000991681284497 0.14)
(0.0384168620894 0.000731488014766 0.14)
(0.0391747418332 0.000468971068474 0.14)
(0.0399320185949 0.000204203761594 0.14)
(0.0406887110762 -6.27441094636e-05 0.14)
(0.0414448370755 -0.000331806121062 0.14)
(0.0422004135229 -0.000602919088337 0.14)
(0.0429554565138 -0.000876022942826 0.14)
(0.0437099813385 -0.00115106062037 0.14)
(0.0444640025098 -0.00142797795839 0.14)
(0.0452175337884 -0.00170672360147 0.14)
(0.0459705882059 -0.00198724891451 0.14)
(0.0467231780867 -0.00226950790273 0.14)
(0.0474753150673 -0.00255345713786 0.14)
(0.0482270101148 -0.00283905568986 0.14)
(0.048978273544 -0.00312626506385 0.14)
(0.0497291150327 -0.00341504914162 0.14)
(0.0504795436364 -0.00370537412736 0.14)
(0.0512295678019 -0.00399720849722 0.14)
(0.0519791953799 -0.00429052295253 0.14)
(0.0527284336362 -0.00458529037612 0.14)
(0.0534772892634 -0.00488148579163 0.14)
(0.0542257683902 -0.0051790863256 0.14)
(0.0549738765918 -0.00547807117203 0.14)
(0.0557216188979 -0.00577842155919 0.14)
(0.0564689998016 -0.00608012071866 0.14)
(0.057216023267 -0.00638315385622 0.14)
(0.0579626927366 -0.00668750812464 0.14)
(0.0587090111379 -0.00699317259809 0.14)
(0.05945498089 -0.00730013824812 0.14)
(0.0602006039098 -0.00760839792105 0.14)
(0.0609458816175 -0.00791794631677 0.14)
(0.0616908149418 -0.00822877996864 0.14)
(0.0624354043256 -0.00854089722474 0.14)
(0.0631796497299 -0.00885429822995 0.14)
(0.0639235506389 -0.00916898490926 0.14)
(0.0646671060642 -0.00948496095181 0.14)
(0.0647042747423 -0.00950079368986 0.14)
(0.064741442553 -0.00951662966535 0.14)
(0.064778609496 -0.00953246887908 0.14)
(0.0648157755711 -0.00954831133187 0.14)
(0.0648529407781 -0.00956415702454 0.14)
(0.0648901051167 -0.00958000595794 0.14)
(0.0649272685868 -0.0095958581329 0.14)
(0.064964431188 -0.0096117135503 0.14)
(0.0650015929203 -0.009627572211 0.14)
(0.0650387537832 -0.00964343411587 0.14)
(0.0650759137766 -0.00965929926582 0.14)
(0.0651130729003 -0.00967516766173 0.14)
(0.0651502311539 -0.00969103930455 0.14)
(0.0651873885374 -0.00970691419516 0.14)
(0.0652245450503 -0.00972279233453 0.14)
(0.0652617006925 -0.00973867372358 0.14)
(0.0652988554636 -0.00975455836328 0.14)
(0.0653360093635 -0.0097704462546 0.14)
(0.0653731623919 -0.00978633739852 0.14)
(0.0654103145484 -0.009802231796 0.14)
(0.0654474658329 -0.00981812944807 0.14)
(0.0654846162451 -0.00983403035573 0.14)
(0.0655217657847 -0.00984993452 0.14)
(0.0655589144514 -0.00986584194191 0.14)
(0.0655960622449 -0.00988175262251 0.14)
(0.065633209165 -0.00989766656284 0.14)
(0.0656703552113 -0.00991358376397 0.14)
(0.0657075003837 -0.00992950422699 0.14)
(0.0657446446817 -0.00994542795296 0.14)
(0.0657817881051 -0.00996135494299 0.14)
(0.0658189306536 -0.00997728519818 0.14)
(0.065856072327 -0.00999321871966 0.14)
(0.0658932131248 -0.0100091555085 0.14)
(0.0659303530468 -0.010025095566 0.14)
(0.0659674920927 -0.0100410388931 0.14)
(0.0660046302622 -0.0100569854911 0.14)
(0.066041767555 -0.0100729353611 0.14)
(0.0660789039707 -0.0100888885043 0.14)
(0.066116039509 -0.010104844922 0.14)
(0.0661531741696 -0.0101208046152 0.14)
(0.0661903079522 -0.0101367675853 0.14)
(0.0662274408565 -0.0101527338334 0.14)
(0.0662645728821 -0.0101687033608 0.14)
(0.0663017040286 -0.0101846761687 0.14)
(0.0663388342959 -0.0102006522583 0.14)
(0.0663759636834 -0.0102166316311 0.14)
(0.0664130921909 -0.0102326142882 0.14)
(0.066450219818 -0.0102486002308 0.14)
(0.0664873465644 -0.0102645894604 0.14)
(0.0665244724297 -0.0102805819782 0.14)
(0.0665615974136 -0.0102965777856 0.14)
(0.0665987215157 -0.0103125768838 0.14)
(0.0666358447356 -0.0103285792743 0.14)
(0.0666729670731 -0.0103445849583 0.14)
(0.0667100885276 -0.0103605939372 0.14)
(0.0667472090989 -0.0103766062125 0.14)
(0.0667843287867 -0.0103926217854 0.14)
(0.0668214475904 -0.0104086406575 0.14)
(0.0668585655097 -0.01042466283 0.14)
(0.0668956825443 -0.0104406883044 0.14)
(0.0669327986938 -0.0104567170822 0.14)
(0.0669699139578 -0.0104727491647 0.14)
(0.0670070283359 -0.0104887845535 0.14)
(0.0670441418277 -0.0105048232499 0.14)
(0.0670812544328 -0.0105208652554 0.14)
(0.0671183661509 -0.0105369105716 0.14)
(0.0671554769814 -0.0105529591999 0.14)
(0.0671925869241 -0.0105690111418 0.14)
(0.0672296959785 -0.0105850663989 0.14)
(0.0672668041442 -0.0106011249726 0.14)
(0.0673039114208 -0.0106171868644 0.14)
(0.0673410178078 -0.010633252076 0.14)
(0.067378123305 -0.0106493206089 0.14)
(0.0674152279118 -0.0106653924646 0.14)
(0.0674523316278 -0.0106814676447 0.14)
(0.0674894344526 -0.0106975461509 0.14)
(0.0675265363858 -0.0107136279846 0.14)
(0.0675636374269 -0.0107297131475 0.14)
(0.0676007375756 -0.0107458016413 0.14)
(0.0676378368313 -0.0107618934675 0.14)
(0.0676749351936 -0.0107779886278 0.14)
(0.0677120326622 -0.0107940871238 0.14)
(0.0677491292365 -0.0108101889572 0.14)
(0.0677862249161 -0.0108262941297 0.14)
(0.0678233197005 -0.0108424026429 0.14)
(0.0678604135894 -0.0108585144986 0.14)
(0.0678975065821 -0.0108746296984 0.14)
(0.0679345986784 -0.010890748244 0.14)
(0.0679716898777 -0.0109068701372 0.14)
(0.0680087801795 -0.0109229953797 0.14)
(0.0680458695835 -0.0109391239733 0.14)
(0.068082958089 -0.0109552559196 0.14)
(0.0681200456957 -0.0109713912205 0.14)
(0.0681571324031 -0.0109875298778 0.14)
(0.0681942182107 -0.0110036718931 0.14)
(0.068231303118 -0.0110198172684 0.14)
(0.0682683871245 -0.0110359660054 0.14)
(0.0683054702297 -0.011052118106 0.14)
(0.0683425524332 -0.0110682735719 0.14)
(0.0683796337345 -0.0110844324051 0.14)
(0.068416714133 -0.0111005946072 0.14)
(0.0684537936283 -0.0111167601803 0.14)
(0.0684908722199 -0.0111329291262 0.14)
(0.0685279499072 -0.0111491014467 0.14)
(0.0685650266898 -0.0111652771438 0.14)
(0.0686021025672 -0.0111814562194 0.14)
(0.0686391775387 -0.0111976386753 0.14)
(0.068676251604 -0.0112138245134 0.14)
(0.0687133247625 -0.0112300137358 0.14)
(0.0687503970137 -0.0112462063444 0.14)
(0.068787468357 -0.011262402341 0.14)
(0.068824538792 -0.0112786017278 0.14)
(0.068861608318 -0.0112948045065 0.14)
(0.0688986769347 -0.0113110106794 0.14)
(0.0689357446414 -0.0113272202482 0.14)
(0.0689728114376 -0.011343433215 0.14)
(0.0690098773227 -0.0113596495819 0.14)
(0.0690469422963 -0.0113758693509 0.14)
(0.0690840063577 -0.011392092524 0.14)
(0.0691210695065 -0.0114083191032 0.14)
(0.069158131742 -0.0114245490906 0.14)
(0.0691951930638 -0.0114407824883 0.14)
(0.0692322534712 -0.0114570192984 0.14)
(0.0692693129637 -0.0114732595228 0.14)
(0.0693063715408 -0.0114895031639 0.14)
(0.0693434292018 -0.0115057502235 0.14)
(0.0693804859463 -0.011522000704 0.14)
(0.0694175417735 -0.0115382546073 0.14)
(0.0694545966831 -0.0115545119357 0.14)
(0.0694916506743 -0.0115707726912 0.14)
(0.0695287037467 -0.0115870368761 0.14)
(0.0695657558996 -0.0116033044926 0.14)
(0.0696028071324 -0.0116195755427 0.14)
(0.0696398574446 -0.0116358500287 0.14)
(0.0696769068355 -0.0116521279528 0.14)
(0.0697139553046 -0.0116684093172 0.14)
(0.0697510028513 -0.0116846941241 0.14)
(0.069788049475 -0.0117009823758 0.14)
(0.0698250951751 -0.0117172740745 0.14)
(0.0698621399509 -0.0117335692224 0.14)
(0.0698991838019 -0.0117498678219 0.14)
(0.0699362267275 -0.0117661698751 0.14)
(0.069973268727 -0.0117824753845 0.14)
(0.0700103097998 -0.0117987843522 0.14)
(0.0700473499454 -0.0118150967806 0.14)
(0.070084389163 -0.011831412672 0.14)
(0.0701214274521 -0.0118477320287 0.14)
(0.0701584648121 -0.0118640548531 0.14)
(0.0701955012422 -0.0118803811474 0.14)
(0.070232536742 -0.0118967109142 0.14)
(0.0702695713107 -0.0119130441557 0.14)
(0.0703066049477 -0.0119293808742 0.14)
(0.0703436376524 -0.0119457210723 0.14)
(0.0703806694241 -0.0119620647523 0.14)
(0.0704177002622 -0.0119784119166 0.14)
(0.070454730166 -0.0119947625676 0.14)
(0.070491759135 -0.0120111167077 0.14)
(0.0705287871683 -0.0120274743395 0.14)
(0.0705658142654 -0.0120438354652 0.14)
(0.0706028404257 -0.0120602000875 0.14)
(0.0706398656484 -0.0120765682088 0.14)
(0.0706768899329 -0.0120929398315 0.14)
(0.0707139132785 -0.0121093149581 0.14)
(0.0707509356845 -0.0121256935912 0.14)
(0.0707879571504 -0.0121420757333 0.14)
(0.0708249776753 -0.0121584613868 0.14)
(0.0708619972587 -0.0121748505543 0.14)
(0.0708990158998 -0.0121912432384 0.14)
(0.0709360335979 -0.0122076394416 0.14)
(0.0709730503525 -0.0122240391664 0.14)
(0.0710100661627 -0.0122404424155 0.14)
(0.0710470810279 -0.0122568491914 0.14)
(0.0710840949474 -0.0122732594968 0.14)
(0.0711211079205 -0.0122896733341 0.14)
(0.0711581199465 -0.0123060907061 0.14)
(0.0711951310247 -0.0123225116154 0.14)
(0.0712321411544 -0.0123389360645 0.14)
(0.0712691503349 -0.0123553640562 0.14)
(0.0713061585654 -0.012371795593 0.14)
(0.0713431658453 -0.0123882306778 0.14)