/*--------------------------------*- C++ -*----------------------------------*\
  =========                 |
  \\      /  F ield         | OpenFOAM: The Open Source CFD Toolbox
   \\    /   O peration     | Website:  https://openfoam.org
    \\  /    A nd           | Version:  7
     \\/     M anipulation  |
\*---------------------------------------------------------------------------*/
FoamFile
{
    version     2.0;
    format      ascii;
    class       dictionary;
    location    "system";
    object      fvSchemes;
}
// * * * * * * * * * * * * * * * * * * * * * * * * * * * * * * * * * * * * * //

ddtSchemes
{
    default       backward;
}

gradSchemes
{
    default        cellMDLimited Gauss linear 0.5;
}

divSchemes
{
    default         none;
    div(phi,e)      Gauss LUST grad(e);
    div(phiv,p)     Gauss linear;
    div(phi,U)      Gauss linearUpwind grad(U);
    div(phi,k)      Gauss limitedLinear 1;
    div(phi,B)      Gauss limitedLinear 1;
	div(phi,K)      Gauss linear;
    div(B)          Gauss linear;
    div(phi,nuTilda) Gauss limitedLinear 1;
	div(phi,epsilon) Gauss upwind;
    div((nuEff*dev2(T(grad(U))))) Gauss linear;
	div((nuEff*dev(T(grad(U))))) Gauss linear;
    div(((rho*nuEff)*dev2(T(grad(U))))) Gauss linear;
	div(meshPhi,p) Gauss linear;
}

laplacianSchemes
{
    default         Gauss linear corrected;
}

interpolationSchemes
{
    default         linear;
}

snGradSchemes
{
    default         corrected;
}

wallDist
{
    method meshWave;
}


// ************************************************************************* //
