FoamFile
{
    version     2.0;
    format      ascii;
    class       dictionary;
    object      blockMeshDict;
}

convertToMeters 1;

vertices
(
    (0.199284147298 -0.00843423554005 0)   //0
    (0.0288047884829 0.0316565167091 0)   //1
    (0.00227883610238 0.0260472212862 0)   //2
    (0.0252865868308 0.0117037994053 0)   //3
    (0.207103912331 0.0158457638161 0)   //4
    (0.0318659250096 0.0570344596107 0)   //5
    (-0.0228417474251 0.0304766569927 0)   //6
    (0.0194833483755 -0.0131906370451 0)   //7
    (0.198240557124 -0.0344208321053 0)   //8
    (0.322731472067 0.37204015451 0)   //9
    (-0.173261660244 0.38720684458 0)   //10
    (-0.391644267625 0.0955064780494 0)   //11
    (-0.2861991188 -0.253293446878 0)   //12
    (0.185069292389 -0.408681028115 0)   //13
    (1.10000000091 0.37204015451 0)   //14
    (1.10000000091 1.0 0)   //15
    (0.322731472067 1.0 0)   //16
    (-0.173261660244 1.0 0)   //17
    (-0.899999999091 1.0 0)   //18
    (-0.899999999091 0.38720684458 0)   //19
    (-0.899999999091 0.0955064780494 0)   //20
    (-0.899999999091 -0.253293446878 0)   //21
    (-0.899999999091 -1.0 0)   //22
    (-0.2861991188 -1.0 0)   //23
    (0.185069292389 -1.0 0)   //24
    (1.10000000091 -1.0 0)   //25
    (1.10000000091 -0.408681028115 0)   //26
    (1.10000000091 -0.0344208321053 0)   //27
    (1.10000000091 -0.00843423554005 0)   //28
    (1.10000000091 0.0158457638161 0)   //29
    (0.285069292389 -1.0 0)   //30
    (0.285069292389 -0.408681028115 0)   //31
    (0.298240557124 -0.0344208321053 0)   //32
    (0.299284147298 -0.00843423554005 0)   //33
    (0.307103912331 0.0158457638161 0)   //34
    (0.422731472067 0.37204015451 0)   //35
    (0.422731472067 1.0 0)   //36
    (0.385069292389 -1.0 0)   //37
    (0.385069292389 -0.408681028115 0)   //38
    (0.398240557124 -0.0344208321053 0)   //39
    (0.399284147298 -0.00843423554005 0)   //40
    (0.407103912331 0.0158457638161 0)   //41
    (0.522731472067 0.37204015451 0)   //42
    (0.522731472067 1.0 0)   //43
    (0.285069292389 -1.0 0)   //44
    (0.285069292389 -0.408681028115 0)   //45
    (0.298240557124 -0.0344208321053 0)   //46
    (0.299284147298 -0.00843423554005 0)   //47
    (0.307103912331 0.0158457638161 0)   //48
    (0.422731472067 0.37204015451 0)   //49
    (0.422731472067 1.0 0)   //50
    (0.385069292389 -1.0 0)   //51
    (0.385069292389 -0.408681028115 0)   //52
    (0.398240557124 -0.0344208321053 0)   //53
    (0.399284147298 -0.00843423554005 0)   //54
    (0.407103912331 0.0158457638161 0)   //55
    (0.522731472067 0.37204015451 0)   //56
    (0.522731472067 1.0 0)   //57
    (0.199284147298 -0.00843423554005 0.01)   //58
    (0.0288047884829 0.0316565167091 0.01)   //59
    (0.00227883610238 0.0260472212862 0.01)   //60
    (0.0252865868308 0.0117037994053 0.01)   //61
    (0.207103912331 0.0158457638161 0.01)   //62
    (0.0318659250096 0.0570344596107 0.01)   //63
    (-0.0228417474251 0.0304766569927 0.01)   //64
    (0.0194833483755 -0.0131906370451 0.01)   //65
    (0.198240557124 -0.0344208321053 0.01)   //66
    (0.322731472067 0.37204015451 0.01)   //67
    (-0.173261660244 0.38720684458 0.01)   //68
    (-0.391644267625 0.0955064780494 0.01)   //69
    (-0.2861991188 -0.253293446878 0.01)   //70
    (0.185069292389 -0.408681028115 0.01)   //71
    (1.10000000091 0.37204015451 0.01)   //72
    (1.10000000091 1.0 0.01)   //73
    (0.322731472067 1.0 0.01)   //74
    (-0.173261660244 1.0 0.01)   //75
    (-0.899999999091 1.0 0.01)   //76
    (-0.899999999091 0.38720684458 0.01)   //77
    (-0.899999999091 0.0955064780494 0.01)   //78
    (-0.899999999091 -0.253293446878 0.01)   //79
    (-0.899999999091 -1.0 0.01)   //80
    (-0.2861991188 -1.0 0.01)   //81
    (0.185069292389 -1.0 0.01)   //82
    (1.10000000091 -1.0 0.01)   //83
    (1.10000000091 -0.408681028115 0.01)   //84
    (1.10000000091 -0.0344208321053 0.01)   //85
    (1.10000000091 -0.00843423554005 0.01)   //86
    (1.10000000091 0.0158457638161 0.01)   //87
    (0.285069292389 -1.0 0.01)   //88
    (0.285069292389 -0.408681028115 0.01)   //89
    (0.298240557124 -0.0344208321053 0.01)   //90
    (0.299284147298 -0.00843423554005 0.01)   //91
    (0.307103912331 0.0158457638161 0.01)   //92
    (0.422731472067 0.37204015451 0.01)   //93
    (0.422731472067 1.0 0.01)   //94
    (0.385069292389 -1.0 0.01)   //95
    (0.385069292389 -0.408681028115 0.01)   //96
    (0.398240557124 -0.0344208321053 0.01)   //97
    (0.399284147298 -0.00843423554005 0.01)   //98
    (0.407103912331 0.0158457638161 0.01)   //99
    (0.522731472067 0.37204015451 0.01)   //100
    (0.522731472067 1.0 0.01)   //101
    (0.285069292389 -1.0 0.01)   //102
    (0.285069292389 -0.408681028115 0.01)   //103
    (0.298240557124 -0.0344208321053 0.01)   //104
    (0.299284147298 -0.00843423554005 0.01)   //105
    (0.307103912331 0.0158457638161 0.01)   //106
    (0.422731472067 0.37204015451 0.01)   //107
    (0.422731472067 1.0 0.01)   //108
    (0.385069292389 -1.0 0.01)   //109
    (0.385069292389 -0.408681028115 0.01)   //110
    (0.398240557124 -0.0344208321053 0.01)   //111
    (0.399284147298 -0.00843423554005 0.01)   //112
    (0.407103912331 0.0158457638161 0.01)   //113
    (0.522731472067 0.37204015451 0.01)   //114
    (0.522731472067 1.0 0.01)   //115
    (0.0270456876568 0.0216801580572 0.01)   //116
    (0.207103912331 0.0158457638161 0.01)   //117
    (0.0318659250096 0.0570344596107 0.01)   //118
    (-0.0228417474251 0.0304766569927 0.01)   //119
    (0.0194833483755 -0.0131906370451 0.01)   //120
    (0.198240557124 -0.0344208321053 0.01)   //121
    (0.214767891055 0.0396420540755 0.01)   //122
    (0.0348597722678 0.0818545498321 0.01)   //123
    (-0.0474619414081 0.0348178605404 0.01)   //124
    (0.0138076755051 -0.0375378491539 0.01)   //125
    (0.197237396057 -0.0594006973546 0.01)   //126
    (0.214767891055 0.0396420540755 0.01)   //127
    (0.0348597722678 0.0818545498321 0.01)   //128
    (-0.0474619414081 0.0348178605404 0.01)   //129
    (0.0138076755051 -0.0375378491539 0.01)   //130
    (0.197237396057 -0.0594006973546 0.01)   //131
    (0.322731472067 0.37204015451 0.01)   //132
    (-0.173261660244 0.38720684458 0.01)   //133
    (-0.391644267625 0.0955064780494 0.01)   //134
    (-0.2861991188 -0.253293446878 0.01)   //135
    (0.185069292389 -0.408681028115 0.01)   //136
    (1.10000000091 0.37204015451 0.01)   //137
    (1.10000000091 1.0 0.01)   //138
    (0.322731472067 1.0 0.01)   //139
    (-0.173261660244 1.0 0.01)   //140
    (-0.899999999091 1.0 0.01)   //141
    (-0.899999999091 0.38720684458 0.01)   //142
    (-0.899999999091 0.0955064780494 0.01)   //143
    (-0.899999999091 -0.253293446878 0.01)   //144
    (-0.899999999091 -1.0 0.01)   //145
    (-0.2861991188 -1.0 0.01)   //146
    (0.185069292389 -1.0 0.01)   //147
    (1.10000000091 -1.0 0.01)   //148
    (1.10000000091 -0.408681028115 0.01)   //149
    (1.10000000091 -0.0344208321053 0.01)   //150
    (1.10000000091 -0.00843423554005 0.01)   //151
    (1.10000000091 0.0158457638161 0.01)   //152
    (0.297237396057 -0.0594006973546 0.01)   //153
    (0.298240557124 -0.0344208321053 0.01)   //154
    (0.307103912331 0.0158457638161 0.01)   //155
    (0.314767891055 0.0396420540755 0.01)   //156
    (0.198240557124 -0.0344208321053 0.01)   //157
    (0.199284147298 -0.00843423554005 0.01)   //158
    (0.207103912331 0.0158457638161 0.01)   //159
    (0.298240557124 -0.0344208321053 0.01)   //160
    (0.299284147298 -0.00843423554005 0.01)   //161
    (0.307103912331 0.0158457638161 0.01)   //162
    (0.199284147298 -0.00843423554005 0.0355081088566)   //163
    (0.0288047884829 0.0316565167091 0.0355081088566)   //164
    (0.00227883610238 0.0260472212862 0.0355081088566)   //165
    (0.0252865868308 0.0117037994053 0.0355081088566)   //166
    (0.207103912331 0.0158457638161 0.0355081088566)   //167
    (0.0318659250096 0.0570344596107 0.0355081088566)   //168
    (-0.0228417474251 0.0304766569927 0.0355081088566)   //169
    (0.0194833483755 -0.0131906370451 0.0355081088566)   //170
    (0.198240557124 -0.0344208321053 0.0355081088566)   //171
    (0.322731472067 0.37204015451 0.0355081088566)   //172
    (-0.173261660244 0.38720684458 0.0355081088566)   //173
    (-0.391644267625 0.0955064780494 0.0355081088566)   //174
    (-0.2861991188 -0.253293446878 0.0355081088566)   //175
    (0.185069292389 -0.408681028115 0.0355081088566)   //176
    (1.10000000091 0.37204015451 0.0355081088566)   //177
    (1.10000000091 1.0 0.0355081088566)   //178
    (0.322731472067 1.0 0.0355081088566)   //179
    (-0.173261660244 1.0 0.0355081088566)   //180
    (-0.899999999091 1.0 0.0355081088566)   //181
    (-0.899999999091 0.38720684458 0.0355081088566)   //182
    (-0.899999999091 0.0955064780494 0.0355081088566)   //183
    (-0.899999999091 -0.253293446878 0.0355081088566)   //184
    (-0.899999999091 -1.0 0.0355081088566)   //185
    (-0.2861991188 -1.0 0.0355081088566)   //186
    (0.185069292389 -1.0 0.0355081088566)   //187
    (1.10000000091 -1.0 0.0355081088566)   //188
    (1.10000000091 -0.408681028115 0.0355081088566)   //189
    (1.10000000091 -0.0344208321053 0.0355081088566)   //190
    (1.10000000091 -0.00843423554005 0.0355081088566)   //191
    (1.10000000091 0.0158457638161 0.0355081088566)   //192
    (0.285069292389 -1.0 0.0355081088566)   //193
    (0.285069292389 -0.408681028115 0.0355081088566)   //194
    (0.298240557124 -0.0344208321053 0.0355081088566)   //195
    (0.299284147298 -0.00843423554005 0.0355081088566)   //196
    (0.307103912331 0.0158457638161 0.0355081088566)   //197
    (0.422731472067 0.37204015451 0.0355081088566)   //198
    (0.422731472067 1.0 0.0355081088566)   //199
    (0.385069292389 -1.0 0.0355081088566)   //200
    (0.385069292389 -0.408681028115 0.0355081088566)   //201
    (0.398240557124 -0.0344208321053 0.0355081088566)   //202
    (0.399284147298 -0.00843423554005 0.0355081088566)   //203
    (0.407103912331 0.0158457638161 0.0355081088566)   //204
    (0.522731472067 0.37204015451 0.0355081088566)   //205
    (0.522731472067 1.0 0.0355081088566)   //206
    (0.285069292389 -1.0 0.0355081088566)   //207
    (0.285069292389 -0.408681028115 0.0355081088566)   //208
    (0.298240557124 -0.0344208321053 0.0355081088566)   //209
    (0.299284147298 -0.00843423554005 0.0355081088566)   //210
    (0.307103912331 0.0158457638161 0.0355081088566)   //211
    (0.422731472067 0.37204015451 0.0355081088566)   //212
    (0.422731472067 1.0 0.0355081088566)   //213
    (0.385069292389 -1.0 0.0355081088566)   //214
    (0.385069292389 -0.408681028115 0.0355081088566)   //215
    (0.398240557124 -0.0344208321053 0.0355081088566)   //216
    (0.399284147298 -0.00843423554005 0.0355081088566)   //217
    (0.407103912331 0.0158457638161 0.0355081088566)   //218
    (0.522731472067 0.37204015451 0.0355081088566)   //219
    (0.522731472067 1.0 0.0355081088566)   //220
    (0.0270456876568 0.0216801580572 0.0355081088566)   //221
    (0.207103912331 0.0158457638161 0.0355081088566)   //222
    (0.0318659250096 0.0570344596107 0.0355081088566)   //223
    (-0.0228417474251 0.0304766569927 0.0355081088566)   //224
    (0.0194833483755 -0.0131906370451 0.0355081088566)   //225
    (0.198240557124 -0.0344208321053 0.0355081088566)   //226
    (0.214767891055 0.0396420540755 0.0355081088566)   //227
    (0.0348597722678 0.0818545498321 0.0355081088566)   //228
    (-0.0474619414081 0.0348178605404 0.0355081088566)   //229
    (0.0138076755051 -0.0375378491539 0.0355081088566)   //230
    (0.197237396057 -0.0594006973546 0.0355081088566)   //231
    (0.214767891055 0.0396420540755 0.0355081088566)   //232
    (0.0348597722678 0.0818545498321 0.0355081088566)   //233
    (-0.0474619414081 0.0348178605404 0.0355081088566)   //234
    (0.0138076755051 -0.0375378491539 0.0355081088566)   //235
    (0.197237396057 -0.0594006973546 0.0355081088566)   //236
    (0.297237396057 -0.0594006973546 0.0355081088566)   //237
    (0.298240557124 -0.0344208321053 0.0355081088566)   //238
    (0.307103912331 0.0158457638161 0.0355081088566)   //239
    (0.314767891055 0.0396420540755 0.0355081088566)   //240
    (0.198240557124 -0.0344208321053 0.0355081088566)   //241
    (0.199284147298 -0.00843423554005 0.0355081088566)   //242
    (0.207103912331 0.0158457638161 0.0355081088566)   //243
    (0.298240557124 -0.0344208321053 0.0355081088566)   //244
    (0.299284147298 -0.00843423554005 0.0355081088566)   //245
    (0.307103912331 0.0158457638161 0.0355081088566)   //246
);

blocks
(
    hex (1 0 4 5 59 58 62 63) (35 22 1) simpleGrading (1 46.0051199094 1)
    hex (2 1 5 6 60 59 63 64) (13 22 1) simpleGrading (1 46.0051199094 1)
    hex (3 2 6 7 61 60 64 65) (13 22 1) simpleGrading (1 46.0051199094 1)
    hex (0 3 7 8 58 61 65 66) (35 22 1) simpleGrading (1 46.0051199094 1)
    hex (5 4 9 10 63 62 67 68) (35 80 1) simpleGrading (1 1 1)
    hex (6 5 10 11 64 63 68 69) (13 80 1) simpleGrading (1 1 1)
    hex (7 6 11 12 65 64 69 70) (13 80 1) simpleGrading (1 1 1)
    hex (8 7 12 13 66 65 70 71) (35 80 1) simpleGrading (1 1 1)
    hex (10 9 16 17 68 67 74 75) (35 50 1) simpleGrading (1 2 1)
    hex (19 10 17 18 77 68 75 76) (50 50 1) simpleGrading (0.5 2 1)
    hex (11 10 19 20 69 68 77 78) (13 50 1) simpleGrading (1 2 1)
    hex (12 11 20 21 70 69 78 79) (13 50 1) simpleGrading (1 2 1)
    hex (12 21 22 23 70 79 80 81) (50 50 1) simpleGrading (2 0.5 1)
    hex (13 12 23 24 71 70 81 82) (35 50 1) simpleGrading (1 0.5 1)
    hex (44 45 13 24 102 103 71 82) (50 14 1) simpleGrading (2 0.505067952996 1)
    hex (45 46 8 13 103 104 66 71) (80 14 1) simpleGrading (1 0.505067952996 1)
    hex (46 47 0 8 104 105 58 66) (22 14 1) simpleGrading (0.0217367110872 0.505067952996 1)
    hex (47 48 4 0 105 106 62 58) (22 14 1) simpleGrading (46.0051199094 0.505067952996 1)
    hex (48 49 9 4 106 107 67 62) (80 14 1) simpleGrading (1 0.505067952996 1)
    hex (49 50 16 9 107 108 74 67) (50 14 1) simpleGrading (2 0.505067952996 1)
    hex (51 52 31 30 109 110 89 88) (50 8 1) simpleGrading (2 0.676839362029 1)
    hex (52 53 32 31 110 111 90 89) (80 8 1) simpleGrading (1 0.676839362029 1)
    hex (53 54 33 32 111 112 91 90) (11 8 1) simpleGrading (0.347787377395 0.676839362029 1)
    hex (54 55 34 33 112 113 92 91) (11 8 1) simpleGrading (2.87531999434 0.676839362029 1)
    hex (55 56 35 34 113 114 93 92) (80 8 1) simpleGrading (1 0.676839362029 1)
    hex (56 57 36 35 114 115 94 93) (50 8 1) simpleGrading (2 0.676839362029 1)
    hex (26 38 37 25 84 96 95 83) (26 50 1) simpleGrading (0.295302771698 0.5 1)
    hex (38 26 27 39 96 84 85 97) (26 80 1) simpleGrading (3.3863549409 1 1)
    hex (39 27 28 40 97 85 86 98) (26 5 1) simpleGrading (3.3863549409 1.0 1)
    hex (40 28 29 41 98 86 87 99) (26 5 1) simpleGrading (3.3863549409 1.0 1)
    hex (41 29 14 42 99 87 72 100) (26 80 1) simpleGrading (3.3863549409 1 1)
    hex (42 14 15 43 100 72 73 101) (26 50 1) simpleGrading (3.3863549409 2 1)
    hex (116 59 60 116 221 164 165 221) (10 13 22) simpleGrading (1 1 46.0051199094)
    hex (116 60 61 116 221 165 166 221) (10 13 22) simpleGrading (1 1 46.0051199094)
    hex (58 116 61 58 163 221 166 163) (35 10 22) simpleGrading (1 1 46.0051199094)
    hex (58 59 116 58 163 164 221 163) (35 10 22) simpleGrading (1 1 46.0051199094)
    hex (58 62 63 59 163 167 168 164) (22 35 22) simpleGrading (46.0051199094 1 46.0051199094)
    hex (59 63 64 60 164 168 169 165) (22 13 22) simpleGrading (46.0051199094 1 46.0051199094)
    hex (60 64 65 61 165 169 170 166) (22 13 22) simpleGrading (46.0051199094 1 46.0051199094)
    hex (61 65 66 58 166 170 171 163) (22 35 22) simpleGrading (46.0051199094 1 46.0051199094)
    hex (117 122 123 118 222 227 228 223) (5 35 11) simpleGrading (1 1 11.5012799773)
    hex (118 123 124 119 223 228 229 224) (5 13 11) simpleGrading (1 1 11.5012799773)
    hex (119 124 125 120 224 229 230 225) (5 13 11) simpleGrading (1 1 11.5012799773)
    hex (120 125 126 121 225 230 231 226) (5 35 11) simpleGrading (1 1 11.5012799773)
    hex (127 132 133 128 232 172 173 233) (74 35 5) simpleGrading (1 1 1)
    hex (128 133 134 129 233 173 174 234) (74 13 5) simpleGrading (1 1 1)
    hex (129 134 135 130 234 174 175 235) (74 13 5) simpleGrading (1 1 1)
    hex (130 135 136 131 235 175 176 236) (74 35 5) simpleGrading (1 1 1)
    hex (159 158 161 162 243 242 245 246) (22 14 22) simpleGrading (0.0217367110872 1.97993159944 46.0051199094)
    hex (158 157 160 161 242 241 244 245) (22 14 22) simpleGrading (46.0051199094 1.97993159944 46.0051199094)
    hex (122 117 155 156 227 222 239 240) (5 14 11) simpleGrading (1 1.97993159944 11.5012799773)
    hex (121 126 153 154 226 231 237 238) (5 14 11) simpleGrading (1 1.97993159944 11.5012799773)
    hex (137 138 139 132 177 178 179 172) (50 26 5) simpleGrading (2 0.295302771698 1)
    hex (139 140 133 132 179 180 173 172) (35 50 5) simpleGrading (1 0.5 1)
    hex (133 140 141 142 173 180 181 182) (50 50 5) simpleGrading (2 2 1)
    hex (133 142 143 134 173 182 183 174) (50 13 5) simpleGrading (2 1 1)
    hex (134 143 144 135 174 183 184 175) (50 13 5) simpleGrading (2 1 1)
    hex (135 144 145 146 175 184 185 186) (50 50 5) simpleGrading (2 2 1)
    hex (136 135 146 147 176 175 186 187) (35 50 5) simpleGrading (1 2 1)
    hex (136 147 148 149 176 187 188 189) (50 26 5) simpleGrading (2 3.3863549409 1)
);

edges
(
       spline 1 0
       (
             (0.0321145174247 0.0314737721285 0)
(0.0355809496179 0.0312172149405 0)
(0.0391959379445 0.0308872865836 0)
(0.0429510525462 0.0304847829787 0)
(0.0468375808246 0.0300108545296 0)
(0.0508465251098 0.0294671080765 0)
(0.0549686246878 0.0288555014693 0)
(0.059194418362 0.0281783528448 0)
(0.063514251399 0.0274383800193 0)
(0.067918258164 0.0266386020075 0)
(0.07239638529 0.025782355246 0)
(0.0769384866851 0.0248732565319 0)
(0.0815342574986 0.0239151740499 0)
(0.0861732793175 0.0229121381682 0)
(0.0908450468084 0.0218683773585 0)
(0.0955389769951 0.0207882556342 0)
(0.100244457928 0.0196762030428 0)
(0.104950848683 0.0185367156666 0)
(0.109647452723 0.0173743197025 0)
(0.114323632596 0.016193530929 0)
(0.118968809942 0.0149988547054 0)
(0.123572353114 0.0137947245522 0)
(0.128123843652 0.0125855160915 0)
(0.132612892067 0.0113755389108 0)
(0.137029275718 0.0101690122525 0)
(0.141362883195 0.00897009512885 0)
(0.1456038383 0.00778278322677 0)
(0.149742422404 0.0066110444494 0)
(0.153769198429 0.00545871582085 0)
(0.157674906563 0.00432960310855 0)
(0.1614506508 0.00322738700517 0)
(0.165087757597 0.00215562774321 0)
(0.168577941531 0.0011178983535 0)
(0.171913234647 0.000117614345716 0)
(0.175086003827 -0.000841867810829 0)
(0.178089026096 -0.0017572842752 0)
(0.180915472404 -0.00262544066571 0)
(0.183558933126 -0.00344329779048 0)
(0.186013412253 -0.00420788938985 0)
(0.188273326256 -0.00491644378628 0)
(0.190333626874 -0.00556626337607 0)
(0.192189628514 -0.00615489728017 0)
(0.193837190128 -0.00668003125478 0)
(0.195272595896 -0.00713958850353 0)
(0.196492640956 -0.00753170417695 0)
(0.197494581594 -0.00785477751503 0)
(0.198276214029 -0.0081074857391 0)
(0.198835756232 -0.00828876321403 0)
(0.199171985804 -0.00839782575894 0)
(0.199284147298 -0.00843423554005 0)
)

       spline 59 58
       (
             (0.0321145174247 0.0314737721285 0.01)
(0.0355809496179 0.0312172149405 0.01)
(0.0391959379445 0.0308872865836 0.01)
(0.0429510525462 0.0304847829787 0.01)
(0.0468375808246 0.0300108545296 0.01)
(0.0508465251098 0.0294671080765 0.01)
(0.0549686246878 0.0288555014693 0.01)
(0.059194418362 0.0281783528448 0.01)
(0.063514251399 0.0274383800193 0.01)
(0.067918258164 0.0266386020075 0.01)
(0.07239638529 0.025782355246 0.01)
(0.0769384866851 0.0248732565319 0.01)
(0.0815342574986 0.0239151740499 0.01)
(0.0861732793175 0.0229121381682 0.01)
(0.0908450468084 0.0218683773585 0.01)
(0.0955389769951 0.0207882556342 0.01)
(0.100244457928 0.0196762030428 0.01)
(0.104950848683 0.0185367156666 0.01)
(0.109647452723 0.0173743197025 0.01)
(0.114323632596 0.016193530929 0.01)
(0.118968809942 0.0149988547054 0.01)
(0.123572353114 0.0137947245522 0.01)
(0.128123843652 0.0125855160915 0.01)
(0.132612892067 0.0113755389108 0.01)
(0.137029275718 0.0101690122525 0.01)
(0.141362883195 0.00897009512885 0.01)
(0.1456038383 0.00778278322677 0.01)
(0.149742422404 0.0066110444494 0.01)
(0.153769198429 0.00545871582085 0.01)
(0.157674906563 0.00432960310855 0.01)
(0.1614506508 0.00322738700517 0.01)
(0.165087757597 0.00215562774321 0.01)
(0.168577941531 0.0011178983535 0.01)
(0.171913234647 0.000117614345716 0.01)
(0.175086003827 -0.000841867810829 0.01)
(0.178089026096 -0.0017572842752 0.01)
(0.180915472404 -0.00262544066571 0.01)
(0.183558933126 -0.00344329779048 0.01)
(0.186013412253 -0.00420788938985 0.01)
(0.188273326256 -0.00491644378628 0.01)
(0.190333626874 -0.00556626337607 0.01)
(0.192189628514 -0.00615489728017 0.01)
(0.193837190128 -0.00668003125478 0.01)
(0.195272595896 -0.00713958850353 0.01)
(0.196492640956 -0.00753170417695 0.01)
(0.197494581594 -0.00785477751503 0.01)
(0.198276214029 -0.0081074857391 0.01)
(0.198835756232 -0.00828876321403 0.01)
(0.199171985804 -0.00839782575894 0.01)
(0.199284147298 -0.00843423554005 0.01)
)

       spline 164 163
       (
             (0.0321145174247 0.0314737721285 0.0355081088566)
(0.0355809496179 0.0312172149405 0.0355081088566)
(0.0391959379445 0.0308872865836 0.0355081088566)
(0.0429510525462 0.0304847829787 0.0355081088566)
(0.0468375808246 0.0300108545296 0.0355081088566)
(0.0508465251098 0.0294671080765 0.0355081088566)
(0.0549686246878 0.0288555014693 0.0355081088566)
(0.059194418362 0.0281783528448 0.0355081088566)
(0.063514251399 0.0274383800193 0.0355081088566)
(0.067918258164 0.0266386020075 0.0355081088566)
(0.07239638529 0.025782355246 0.0355081088566)
(0.0769384866851 0.0248732565319 0.0355081088566)
(0.0815342574986 0.0239151740499 0.0355081088566)
(0.0861732793175 0.0229121381682 0.0355081088566)
(0.0908450468084 0.0218683773585 0.0355081088566)
(0.0955389769951 0.0207882556342 0.0355081088566)
(0.100244457928 0.0196762030428 0.0355081088566)
(0.104950848683 0.0185367156666 0.0355081088566)
(0.109647452723 0.0173743197025 0.0355081088566)
(0.114323632596 0.016193530929 0.0355081088566)
(0.118968809942 0.0149988547054 0.0355081088566)
(0.123572353114 0.0137947245522 0.0355081088566)
(0.128123843652 0.0125855160915 0.0355081088566)
(0.132612892067 0.0113755389108 0.0355081088566)
(0.137029275718 0.0101690122525 0.0355081088566)
(0.141362883195 0.00897009512885 0.0355081088566)
(0.1456038383 0.00778278322677 0.0355081088566)
(0.149742422404 0.0066110444494 0.0355081088566)
(0.153769198429 0.00545871582085 0.0355081088566)
(0.157674906563 0.00432960310855 0.0355081088566)
(0.1614506508 0.00322738700517 0.0355081088566)
(0.165087757597 0.00215562774321 0.0355081088566)
(0.168577941531 0.0011178983535 0.0355081088566)
(0.171913234647 0.000117614345716 0.0355081088566)
(0.175086003827 -0.000841867810829 0.0355081088566)
(0.178089026096 -0.0017572842752 0.0355081088566)
(0.180915472404 -0.00262544066571 0.0355081088566)
(0.183558933126 -0.00344329779048 0.0355081088566)
(0.186013412253 -0.00420788938985 0.0355081088566)
(0.188273326256 -0.00491644378628 0.0355081088566)
(0.190333626874 -0.00556626337607 0.0355081088566)
(0.192189628514 -0.00615489728017 0.0355081088566)
(0.193837190128 -0.00668003125478 0.0355081088566)
(0.195272595896 -0.00713958850353 0.0355081088566)
(0.196492640956 -0.00753170417695 0.0355081088566)
(0.197494581594 -0.00785477751503 0.0355081088566)
(0.198276214029 -0.0081074857391 0.0355081088566)
(0.198835756232 -0.00828876321403 0.0355081088566)
(0.199171985804 -0.00839782575894 0.0355081088566)
(0.199284147298 -0.00843423554005 0.0355081088566)
)

       spline 2 1
       (
             (0.00227883610238 0.0260472212862 0)
(0.00254180058831 0.0268660579556 0)
(0.00303131632141 0.0276263246121 0)
(0.00374641253006 0.028327237928 0)
(0.00468553107906 0.0289677932069 0)
(0.00584656353056 0.0295468593919 0)
(0.00722678510971 0.0300631500918 0)
(0.00882294390815 0.0305152687782 0)
(0.0106312516067 0.0309017713463 0)
(0.0126473672524 0.0312211892848 0)
(0.0148664899345 0.0314720945678 0)
(0.0172832765273 0.0316530938513 0)
(0.0198919320353 0.031762995319 0)
(0.0226862513165 0.0318006997832 0)
(0.0256595553316 0.0317654150109 0)
(0.0288047884829 0.0316565167091 0)
)

       spline 60 59
       (
             (0.00227883610238 0.0260472212862 0.01)
(0.00254180058831 0.0268660579556 0.01)
(0.00303131632141 0.0276263246121 0.01)
(0.00374641253006 0.028327237928 0.01)
(0.00468553107906 0.0289677932069 0.01)
(0.00584656353056 0.0295468593919 0.01)
(0.00722678510971 0.0300631500918 0.01)
(0.00882294390815 0.0305152687782 0.01)
(0.0106312516067 0.0309017713463 0.01)
(0.0126473672524 0.0312211892848 0.01)
(0.0148664899345 0.0314720945678 0.01)
(0.0172832765273 0.0316530938513 0.01)
(0.0198919320353 0.031762995319 0.01)
(0.0226862513165 0.0318006997832 0.01)
(0.0256595553316 0.0317654150109 0.01)
(0.0288047884829 0.0316565167091 0.01)
)

       spline 165 164
       (
             (0.00227883610238 0.0260472212862 0.0355081088566)
(0.00254180058831 0.0268660579556 0.0355081088566)
(0.00303131632141 0.0276263246121 0.0355081088566)
(0.00374641253006 0.028327237928 0.0355081088566)
(0.00468553107906 0.0289677932069 0.0355081088566)
(0.00584656353056 0.0295468593919 0.0355081088566)
(0.00722678510971 0.0300631500918 0.0355081088566)
(0.00882294390815 0.0305152687782 0.0355081088566)
(0.0106312516067 0.0309017713463 0.0355081088566)
(0.0126473672524 0.0312211892848 0.0355081088566)
(0.0148664899345 0.0314720945678 0.0355081088566)
(0.0172832765273 0.0316530938513 0.0355081088566)
(0.0198919320353 0.031762995319 0.0355081088566)
(0.0226862513165 0.0318006997832 0.0355081088566)
(0.0256595553316 0.0317654150109 0.0355081088566)
(0.0288047884829 0.0316565167091 0.0355081088566)
)

       spline 3 2
       (
             (0.0252865868308 0.0117037994053 0)
(0.0222937889644 0.0126772013505 0)
(0.0194877289478 0.013660974172 0)
(0.0168748233534 0.0146521180701 0)
(0.0144610774658 0.0156476042238 0)
(0.0122519462669 0.0166442774512 0)
(0.0102524676466 0.0176390358068 0)
(0.00846718594896 0.0186287425189 0)
(0.00690012414095 0.0196104136746 0)
(0.00555485912387 0.0205811846312 0)
(0.00443445684056 0.0215384026931 0)
(0.00354149544461 0.0224796433347 0)
(0.00287809541534 0.023402765816 0)
(0.00244585119207 0.0243059861631 0)
(0.00224588331672 0.0251878273568 0)
)

       spline 61 60
       (
             (0.0252865868308 0.0117037994053 0.01)
(0.0222937889644 0.0126772013505 0.01)
(0.0194877289478 0.013660974172 0.01)
(0.0168748233534 0.0146521180701 0.01)
(0.0144610774658 0.0156476042238 0.01)
(0.0122519462669 0.0166442774512 0.01)
(0.0102524676466 0.0176390358068 0.01)
(0.00846718594896 0.0186287425189 0.01)
(0.00690012414095 0.0196104136746 0.01)
(0.00555485912387 0.0205811846312 0.01)
(0.00443445684056 0.0215384026931 0.01)
(0.00354149544461 0.0224796433347 0.01)
(0.00287809541534 0.023402765816 0.01)
(0.00244585119207 0.0243059861631 0.01)
(0.00224588331672 0.0251878273568 0.01)
)

       spline 166 165
       (
             (0.0252865868308 0.0117037994053 0.0355081088566)
(0.0222937889644 0.0126772013505 0.0355081088566)
(0.0194877289478 0.013660974172 0.0355081088566)
(0.0168748233534 0.0146521180701 0.0355081088566)
(0.0144610774658 0.0156476042238 0.0355081088566)
(0.0122519462669 0.0166442774512 0.0355081088566)
(0.0102524676466 0.0176390358068 0.0355081088566)
(0.00846718594896 0.0186287425189 0.0355081088566)
(0.00690012414095 0.0196104136746 0.0355081088566)
(0.00555485912387 0.0205811846312 0.0355081088566)
(0.00443445684056 0.0215384026931 0.0355081088566)
(0.00354149544461 0.0224796433347 0.0355081088566)
(0.00287809541534 0.023402765816 0.0355081088566)
(0.00244585119207 0.0243059861631 0.0355081088566)
(0.00224588331672 0.0251878273568 0.0355081088566)
)

       spline 0 3
       (
             (0.199196628634 -0.00893057865075 0)
(0.199078778427 -0.00892643117183 0)
(0.198725524391 -0.00891391917964 0)
(0.198137726162 -0.00889288962331 0)
(0.197316800626 -0.00886302369902 0)
(0.19626478681 -0.00882392952642 0)
(0.194984208007 -0.0087751178379 0)
(0.193478189959 -0.0087160228164 0)
(0.191750382066 -0.00864598820351 0)
(0.189804986363 -0.00856433333392 0)
(0.187646685679 -0.00847029985118 0)
(0.185280721283 -0.00836318724951 0)
(0.182712759622 -0.00824218721701 0)
(0.179948995468 -0.00810660490789 0)
(0.176996077745 -0.00795570370465 0)
(0.173861068996 -0.00778881992199 0)
(0.170551478973 -0.00760528749516 0)
(0.167075211349 -0.0074045098187 0)
(0.16344058689 -0.00718594352319 0)
(0.159656261198 -0.00694910427958 0)
(0.155731242073 -0.00669346831842 0)
(0.151674897649 -0.00641865664117 0)
(0.147496846308 -0.00612425314023 0)
(0.143207091078 -0.00580984860581 0)
(0.138815812249 -0.00547506508482 0)
(0.134333499449 -0.00511949793395 0)
(0.129770799874 -0.00474277029362 0)
(0.125138637606 -0.00434443227583 0)
(0.120448061853 -0.00392401543804 0)
(0.115710309505 -0.00348102350592 0)
(0.110936667264 -0.0030149080626 0)
(0.106138641962 -0.00252513919764 0)
(0.101327714932 -0.00201110127005 0)
(0.0965154265936 -0.00147218905773 0)
(0.0917133764563 -0.000907807757481 0)
(0.0869331014675 -0.00031737184336 0)
(0.0821860887637 0.000299652068037 0)
(0.0774837756701 0.000943745217569 0)
(0.0728374801932 0.00161528803398 0)
(0.0682583709061 0.0023145045184 0)
(0.063757454198 0.0030415051096 0)
(0.059345501294 0.00379621831828 0)
(0.0550331003974 0.00457834091587 0)
(0.0508305547365 0.00538733560317 0)
(0.0467478663408 0.00622245417948 0)
(0.0427947186766 0.00708263906183 0)
(0.0389804835926 0.00796656267728 0)
(0.0353141657047 0.00887265757797 0)
(0.0318043456388 0.00979902490626 0)
(0.0284592170916 0.0107435294026 0)
)

       spline 58 61
       (
             (0.199196628634 -0.00893057865075 0.01)
(0.199078778427 -0.00892643117183 0.01)