/*--------------------------------*- C++ -*----------------------------------*\
  =========                 |
  \\      /  F ield         | OpenFOAM: The Open Source CFD Toolbox
   \\    /   O peration     | Website:  https://openfoam.org
    \\  /    A nd           | Version:  7
     \\/     M anipulation  |
\*---------------------------------------------------------------------------*/
FoamFile
{
    version     2.0;
    format      ascii;
    class       volScalarField;
    location    "0";
    object      p;
}
// * * * * * * * * * * * * * * * * * * * * * * * * * * * * * * * * * * * * * //

dimensions      [0 2 -2 0 0 0 0];

internalField   uniform 0;

boundaryField
{
    Wall
    {
        type            zeroGradient;//fixedFluxPressure;
        value           $internalField;
    }
    Inlet
    {
/*        type            mixed;

        refValue        uniform 0.01;
        refGradient     uniform 0;
        valueFraction   uniform 0.;*/

        type            zeroGradient;//fixedValue;//fixedFluxPressure;//zeroGradient;
 	value           $internalField;
    }
    Vinlet
    {
        type            fixedValue;
        value           $internalField;
    }
    Outlet
    {
        type            fixedValue;//fixedFluxPressure;//fixedValue;
	value		uniform 0;
    }
    Aile
    {
        type            zeroGradient;//fixedFluxPressure;
        value           $internalField;
    }
    FrontAndBack
    {
        type            empty;
    }
}


// ************************************************************************* //
